paa
pab
pac
pad
pae
paf
pag
pah
pai
paj
pak
pal
pam
pan
pao
pap
paq
par
pas
pat
pau
pav
paw
pax
pay
paz
pba
pbb
pbc
pbd
pbe
pbf
pbg
pbh
pbi
pbj
pbk
pbl
pbm
pbn
pbo
pbp
pbq
pbr
pbs
pbt
pbu
pbv
pbw
pbx
pby
pbz
pca
pcb
pcc
pcd
pce
pcf
pcg
pch
pci
pcj
pck
pcl
pcm
pcn
pco
pcp
pcq
pcr
pcs
pct
pcu
pcv
pcw
pcx
pcy
pcz
pda
pdb
pdc
pdd
pde
pdf
pdg
pdh
pdi
pdj
pdk
pdl
pdm
pdn
pdo
pdp
pdq
pdr
pds
pdt
pdu
pdv
pdw
pdx
pdy
pdz
pea
peb
pec
ped
pee
pef
peg
peh
pei
pej
pek
pel
pem
pen
peo
pep
peq
per
pes
pet
peu
pev
pew
pex
pey
pez
pfa
pfb
pfc
pfd
pfe
pff
pfg
pfh
pfi
pfj
pfk
pfl
pfm
pfn
pfo
pfp
pfq
pfr
pfs
pft
pfu
pfv
pfw
pfx
pfy
pfz
pga
pgb
pgc
pgd
pge
pgf
pgg
pgh
pgi
pgj
pgk
pgl
pgm
pgn
pgo
pgp
pgq
pgr
pgs
pgt
pgu
pgv
pgw
pgx
pgy
pgz
pha
phb
phc
phd
phe
phf
phg
phh
phi
phj
phk
phl
phm
phn
pho
php
phq
phr
phs
pht
phu
phv
phw
phx
phy
phz
pia
pib
pic
pid
pie
pif
pig
pih
pii
pij
pik
pil
pim
pin
pio
pip
piq
pir
pis
pit
piu
piv
piw
pix
piy
piz
pja
pjb
pjc
pjd
pje
pjf
pjg
pjh
pji
pjj
pjk
pjl
pjm
pjn
pjo
pjp
pjq
pjr
pjs
pjt
pju
pjv
pjw
pjx
pjy
pjz
pka
pkb
pkc
pkd
pke
pkf
pkg
pkh
pki
pkj
pkk
pkl
pkm
pkn
pko
pkp
pkq
pkr
pks
pkt
pku
pkv
pkw
pkx
pky
pkz
pla
plb
plc
pld
ple
plf
plg
plh
pli
plj
plk
pll
plm
pln
plo
plp
plq
plr
pls
plt
plu
plv
plw
plx
ply
plz
pma
pmb
pmc
pmd
pme
pmf
pmg
pmh
pmi
pmj
pmk
pml
pmm
pmn
pmo
pmp
pmq
pmr
pms
pmt
pmu
pmv
pmw
pmx
pmy
pmz
pna
pnb
pnc
pnd
pne
pnf
png
pnh
pni
pnj
pnk
pnl
pnm
pnn
pno
pnp
pnq
pnr
pns
pnt
pnu
pnv
pnw
pnx
pny
pnz
poa
pob
poc
pod
poe
pof
pog
poh
poi
poj
pok
pol
pom
pon
poo
pop
poq
por
pos
pot
pou
pov
pow
pox
poy
poz
ppa
ppb
ppc
ppd
ppe
ppf
ppg
pph
ppi
ppj
ppk
ppl
ppm
ppn
ppo
ppp
ppq
ppr
pps
ppt
ppu
ppv
ppw
ppx
ppy
ppz
pqa
pqb
pqc
pqd
pqe
pqf
pqg
pqh
pqi
pqj
pqk
pql
pqm
pqn
pqo
pqp
pqq
pqr
pqs
pqt
pqu
pqv
pqw
pqx
pqy
pqz
pra
prb
prc
prd
pre
prf
prg
prh
pri
prj
prk
prl
prm
prn
pro
prp
prq
prr
prs
prt
pru
prv
prw
prx
pry
prz
psa
psb
psc
psd
pse
psf
psg
psh
psi
psj
psk
psl
psm
psn
pso
psp
psq
psr
pss
pst
psu
psv
psw
psx
psy
psz
pta
ptb
ptc
ptd
pte
ptf
ptg
pth
pti
ptj
ptk
ptl
ptm
ptn
pto
ptp
ptq
ptr
pts
ptt
ptu
ptv
ptw
ptx
pty
ptz
pua
pub
puc
pud
pue
puf
pug
puh
pui
puj
puk
pul
pum
pun
puo
pup
puq
pur
pus
put
puu
puv
puw
pux
puy
puz
pva
pvb
pvc
pvd
pve
pvf
pvg
pvh
pvi
pvj
pvk
pvl
pvm
pvn
pvo
pvp
pvq
pvr
pvs
pvt
pvu
pvv
pvw
pvx
pvy
pvz
pwa
pwb
pwc
pwd
pwe
pwf
pwg
pwh
pwi
pwj
pwk
pwl
pwm
pwn
pwo
pwp
pwq
pwr
pws
pwt
pwu
pwv
pww
pwx
pwy
pwz
pxa
pxb
pxc
pxd
pxe
pxf
pxg
pxh
pxi
pxj
pxk
pxl
pxm
pxn
pxo
pxp
pxq
pxr
pxs
pxt
pxu
pxv
pxw
pxx
pxy
pxz
pya
pyb
pyc
pyd
pye
pyf
pyg
pyh
pyi
pyj
pyk
pyl
pym
pyn
pyo
pyp
pyq
pyr
pys
pyt
pyu
pyv
pyw
pyx
pyy
pyz
pza
pzb
pzc
pzd
pze
pzf
pzg
pzh
pzi
pzj
pzk
pzl
pzm
pzn
pzo
pzp
pzq
pzr
pzs
pzt
pzu
pzv
pzw
pzx
pzy
pzz